<?xml version="1.0" encoding="UTF-8"?>

<!-- generated on 2024-08-01 10:13:02 by Eclipse SUMO netedit Version 1.20.0
<configuration xmlns:xsi="http://www.w3.org/2001/XMLSchema-instance" xsi:noNamespaceSchemaLocation="http://sumo.dlr.de/xsd/neteditConfiguration.xsd">

    <input>
        <sumocfg-file value="D:\奇瑞决策规划\交互式仿真\jinghugaosu\jinghugaosu.sumocfg"/>
        <additional-files value=""/>
        <route-files value="D:\奇瑞决策规划\交互式仿真\jinghugaosu\jinghu_routes.rou.xml"/>
        <sumo-net-file value="D:\奇瑞决策规划\交互式仿真\jinghugaosu\jinghugaosu.net.xml"/>
    </input>

    <output>
        <output-file value="D:\奇瑞决策规划\交互式仿真\jinghugaosu\jinghugaosu.net.xml"/>
    </output>

    <processing>
        <geometry.min-radius.fix.railways value="false"/>
        <geometry.max-grade.fix value="false"/>
        <offset.disable-normalization value="true"/>
        <lefthand value="0"/>
    </processing>

    <junctions>
        <no-turnarounds value="true"/>
        <junctions.corner-detail value="5"/>
        <junctions.limit-turn-speed value="5.50"/>
        <rectangular-lane-cut value="1"/>
    </junctions>

    <pedestrian>
        <walkingareas value="0"/>
    </pedestrian>

</configuration>
-->

<net version="1.20" junctionCornerDetail="5" rectangularLaneCut="true" limitTurnSpeed="5.50" xmlns:xsi="http://www.w3.org/2001/XMLSchema-instance" xsi:noNamespaceSchemaLocation="http://sumo.dlr.de/xsd/net_file.xsd">

    <location netOffset="9569.10,-4094.92" convBoundary="0.00,0.00,4874.18,2793.82" origBoundary="0.000000,0.000000,0.000000,0.000000" projParameter="+proj=tmerc +lat_0=31.213918 +lon_0=121.2576812 +k=1 +x_0=0 +y_0=0 +datum=WGS84 +units=m  +vunits=m +no_defs "/>

    <type id="driving" priority="1" speed="13.89" disallow="pedestrian tram rail_urban rail rail_electric rail_fast ship" width="3.65"/>

    <edge id=":1#1_0" function="internal">
        <lane id=":1#1_0_0" index="0" disallow="all" speed="27.78" length="3.07" width="3.11" shape="4731.88,-7.63 4732.76,-7.94 4733.25,-8.52 4733.73,-9.10 4734.61,-9.43"/>
        <lane id=":1#1_0_1" index="1" allow="emergency authority" speed="27.78" length="3.07" width="3.67" shape="4732.09,-5.09 4732.95,-5.28 4733.50,-5.57 4734.06,-5.86 4734.92,-6.05"/>
        <lane id=":1#1_0_2" index="2" disallow="pedestrian tram rail_urban rail rail_electric rail_fast ship" speed="27.78" length="3.07" width="3.85" shape="4732.32,-2.17 4735.26,-2.31"/>
        <lane id=":1#1_0_3" index="3" disallow="pedestrian tram rail_urban rail rail_electric rail_fast ship" speed="27.78" length="3.07" width="3.73" shape="4732.64,1.72 4735.61,1.47"/>
        <lane id=":1#1_0_4" index="4" disallow="pedestrian tram rail_urban rail rail_electric rail_fast ship" speed="27.78" length="3.07" width="3.80" shape="4732.95,5.47 4735.96,5.22"/>
        <lane id=":1#1_0_5" index="5" disallow="pedestrian tram rail_urban rail rail_electric rail_fast ship" speed="27.78" length="3.07" width="3.81" shape="4733.26,9.27 4736.30,9.01"/>
        <lane id=":1#1_0_6" index="6" disallow="all" speed="27.78" length="3.07" width="0.62" shape="4733.44,11.47 4736.51,11.21"/>
    </edge>
    <edge id=":110_0" function="internal">
        <lane id=":110_0_0" index="0" disallow="all" speed="27.78" length="28.13" width="0.49" shape="534.92,1970.27 539.36,1965.35 543.14,1960.86 547.22,1955.63 552.54,1948.54">
            <param key="origId" value="112_-1"/>
        </lane>
        <lane id=":110_0_1" index="1" disallow="pedestrian tram rail_urban rail rail_electric rail_fast ship" speed="27.78" length="28.13" width="3.77" shape="536.97,1972.16 541.35,1967.16 544.99,1962.48 548.95,1957.05 554.25,1949.81">
            <param key="origId" value="111_-1"/>
        </lane>
    </edge>
    <edge id=":110_2" function="internal">
        <lane id=":110_2_0" index="0" disallow="pedestrian tram rail_urban rail rail_electric rail_fast ship" speed="27.78" length="28.29" width="3.75" shape="540.51,1974.84 557.27,1952.05">
            <param key="origId" value="113_-1"/>
        </lane>
    </edge>
    <edge id=":114_0" function="internal">
        <lane id=":114_0_0" index="0" disallow="pedestrian tram rail_urban rail rail_electric rail_fast ship" speed="27.78" length="69.54" width="3.86" shape="683.11,2025.15 686.48,2038.37 691.92,2054.85 698.08,2073.10 703.63,2091.59"/>
        <lane id=":114_0_1" index="1" allow="emergency authority" speed="27.78" length="69.54" width="1.67" shape="683.11,2025.15 686.07,2038.48 690.58,2055.21 695.82,2073.69 700.96,2092.30"/>
    </edge>
    <edge id=":114_2" function="internal">
        <lane id=":114_2_0" index="0" disallow="pedestrian tram rail_urban rail rail_electric rail_fast ship" speed="27.78" length="69.27" width="3.06" shape="674.44,2027.77 679.10,2040.59 684.50,2056.97 690.09,2075.26 695.28,2093.81">
            <param key="origId" value="115_-1"/>
        </lane>
    </edge>
    <edge id=":119_0" function="internal">
        <lane id=":119_0_0" index="0" disallow="pedestrian tram rail_urban rail rail_electric rail_fast ship" speed="27.78" length="106.80" width="3.71" shape="841.13,1671.54 822.54,1696.69 800.84,1719.36 781.14,1737.73 768.59,1749.97">
            <param key="origId" value="125_-1"/>
        </lane>
        <lane id=":119_0_1" index="1" disallow="pedestrian tram rail_urban rail rail_electric rail_fast ship" speed="27.78" length="106.80" width="3.79" shape="837.77,1669.54 819.25,1694.62 797.72,1717.15 778.20,1735.37 765.73,1747.54">
            <param key="origId" value="124_-1"/>
        </lane>
    </edge>
    <edge id=":119_2" function="internal">
        <lane id=":119_2_0" index="0" disallow="pedestrian tram rail_urban rail rail_electric rail_fast ship" speed="27.78" length="104.81" width="3.74" shape="834.39,1667.53 816.73,1690.30 796.42,1708.66 776.54,1725.04 760.14,1741.89">
            <param key="origId" value="123_-1"/>
        </lane>
        <lane id=":119_2_1" index="1" disallow="pedestrian tram rail_urban rail rail_electric rail_fast ship" speed="27.78" length="104.81" width="3.74" shape="831.09,1665.57 813.47,1688.29 793.28,1706.54 773.51,1722.82 757.16,1739.63">
            <param key="origId" value="121_-1"/>
        </lane>
        <lane id=":119_2_2" index="2" disallow="pedestrian tram rail_urban rail rail_electric rail_fast ship" speed="27.78" length="104.81" width="3.80" shape="827.82,1663.63 810.25,1686.30 790.15,1704.43 770.47,1720.59 754.16,1737.34">
            <param key="origId" value="122_-1"/>
        </lane>
        <lane id=":119_2_3" index="3" disallow="pedestrian tram rail_urban rail rail_electric rail_fast ship" speed="27.78" length="104.81" width="3.81" shape="824.55,1661.68 807.01,1684.30 787.00,1702.31 767.40,1718.34 751.14,1735.03">
            <param key="origId" value="120_-1"/>
        </lane>
    </edge>
    <edge id=":126_0" function="internal">
        <lane id=":126_0_0" index="0" disallow="all" speed="27.78" length="18.83" width="2.43" shape="536.95,2084.28 532.51,2087.46 529.28,2089.47 526.37,2091.79 522.92,2095.92">
            <param key="origId" value="127_-1"/>
        </lane>
        <lane id=":126_0_1" index="1" disallow="pedestrian tram rail_urban rail rail_electric rail_fast ship" speed="27.78" length="18.83" width="4.32" shape="534.38,2081.06 529.80,2084.51 526.59,2086.84 523.73,2089.50 520.19,2093.94">
            <param key="origId" value="128_-1"/>
        </lane>
    </edge>
    <edge id=":126_2" function="internal">
        <lane id=":126_2_0" index="0" disallow="pedestrian tram rail_urban rail rail_electric rail_fast ship" speed="27.78" length="19.84" width="3.50" shape="528.74,2075.63 517.03,2091.64">
            <param key="origId" value="129_-1"/>
        </lane>
        <lane id=":126_2_1" index="1" disallow="pedestrian tram rail_urban rail rail_electric rail_fast ship" speed="27.78" length="19.84" width="3.80" shape="525.78,2073.45 514.08,2089.49">
            <param key="origId" value="130_-1"/>
        </lane>
    </edge>
    <edge id=":131_0" function="internal">
        <lane id=":131_0_0" index="0" disallow="all" speed="27.78" length="29.78" width="2.61" shape="723.64,1820.80 718.57,1828.01 715.49,1833.22 712.93,1838.73 709.40,1846.83">
            <param key="origId" value="134_-1"/>
        </lane>
        <lane id=":131_0_1" index="1" disallow="pedestrian tram rail_urban rail rail_electric rail_fast ship" speed="27.78" length="30.45" width="4.46" shape="721.52,1819.24 716.19,1826.56 712.76,1831.76 709.86,1837.25 706.17,1845.41">
            <param key="origId" value="135_-1"/>
        </lane>
    </edge>
    <edge id=":131_2" function="internal">
        <lane id=":131_2_0" index="0" disallow="pedestrian tram rail_urban rail rail_electric rail_fast ship" speed="27.78" length="31.25" width="3.60" shape="718.37,1816.91 699.81,1842.05">
            <param key="origId" value="132_-1"/>
        </lane>
        <lane id=":131_2_1" index="1" disallow="pedestrian tram rail_urban rail rail_electric rail_fast ship" speed="27.78" length="31.25" width="3.76" shape="715.37,1814.69 696.85,1839.87">
            <param key="origId" value="133_-1"/>
        </lane>
    </edge>
    <edge id=":136_0" function="internal">
        <lane id=":136_0_0" index="0" disallow="all" speed="27.78" length="20.71" width="2.66" shape="370.79,2186.17 374.20,2181.10 376.18,2177.40 378.07,2173.64 381.21,2168.38">
            <param key="origId" value="140_-1"/>
        </lane>
        <lane id=":136_0_1" index="1" disallow="pedestrian tram rail_urban rail rail_electric rail_fast ship" speed="27.78" length="20.71" width="4.10" shape="373.16,2187.92 384.04,2170.22">
            <param key="origId" value="141_-1"/>
        </lane>
    </edge>
    <edge id=":136_2" function="internal">
        <lane id=":136_2_0" index="0" disallow="pedestrian tram rail_urban rail rail_electric rail_fast ship" speed="27.78" length="21.46" width="3.73" shape="376.44,2190.33 389.95,2173.64">
            <param key="origId" value="138_-1"/>
        </lane>
        <lane id=":136_2_1" index="1" disallow="pedestrian tram rail_urban rail rail_electric rail_fast ship" speed="27.78" length="21.46" width="3.77" shape="379.52,2192.61 392.96,2175.88">
            <param key="origId" value="139_-1"/>
        </lane>
        <lane id=":136_2_2" index="2" disallow="all" speed="27.78" length="21.46" width="0.81" shape="381.72,2194.22 394.80,2177.24">
            <param key="origId" value="137_-1"/>
        </lane>
    </edge>
    <edge id=":14#1_0" function="internal">
        <lane id=":14#1_0_0" index="0" disallow="all" speed="27.78" length="1.95" width="1.82" shape="289.37,2300.49 288.58,2298.03"/>
        <lane id=":14#1_0_1" index="1" allow="emergency authority" speed="27.78" length="1.95" width="3.07" shape="290.81,2301.74 290.43,2299.62"/>
        <lane id=":14#1_0_2" index="2" disallow="pedestrian tram rail_urban rail rail_electric rail_fast ship" speed="27.78" length="1.95" width="3.74" shape="292.92,2303.55 293.02,2301.83"/>
        <lane id=":14#1_0_3" index="3" disallow="pedestrian tram rail_urban rail rail_electric rail_fast ship" speed="27.78" length="1.95" width="3.77" shape="295.78,2306.03 295.87,2304.28"/>
        <lane id=":14#1_0_4" index="4" disallow="all" speed="27.78" length="1.95" width="1.75" shape="297.48,2307.49 297.69,2307.11 297.72,2306.78 297.75,2306.45 297.96,2306.07"/>
    </edge>
    <edge id=":20.14_0" function="internal">
        <lane id=":20.14_0_0" index="0" disallow="pedestrian tram rail_urban rail rail_electric rail_fast ship" speed="27.78" length="2.93" width="3.26" shape="296.84,2292.41 297.33,2291.80 297.61,2291.34 297.87,2290.87 298.33,2290.23"/>
        <lane id=":20.14_0_1" index="1" disallow="pedestrian tram rail_urban rail rail_electric rail_fast ship" speed="27.78" length="2.93" width="3.77" shape="299.38,2294.68 301.08,2292.42"/>
        <lane id=":20.14_0_2" index="2" disallow="pedestrian tram rail_urban rail rail_electric rail_fast ship" speed="27.78" length="2.93" width="3.81" shape="302.18,2297.17 304.05,2294.77"/>
        <lane id=":20.14_0_3" index="3" disallow="all" speed="27.78" length="2.93" width="1.85" shape="304.25,2299.01 306.26,2296.54"/>
    </edge>
    <edge id=":22.17_0" function="internal">
        <lane id=":22.17_0_0" index="0" disallow="all" speed="27.78" length="2.71" width="3.68" shape="713.44,1810.39 713.11,1810.92 712.97,1811.33 712.84,1811.74 712.55,1812.29"/>
        <lane id=":22.17_0_1" index="1" disallow="pedestrian tram rail_urban rail rail_electric rail_fast ship" speed="27.78" length="2.71" width="3.94" shape="710.55,1808.26 710.15,1808.83 709.92,1809.24 709.69,1809.66 709.34,1810.25"/>
        <lane id=":22.17_0_2" index="2" disallow="pedestrian tram rail_urban rail rail_electric rail_fast ship" speed="27.78" length="2.71" width="3.77" shape="707.53,1806.05 706.08,1808.18"/>
        <lane id=":22.17_0_3" index="3" disallow="pedestrian tram rail_urban rail rail_electric rail_fast ship" speed="27.78" length="2.71" width="3.84" shape="704.50,1803.81 702.87,1806.14"/>
        <lane id=":22.17_0_4" index="4" disallow="pedestrian tram rail_urban rail rail_electric rail_fast ship" speed="27.78" length="2.71" width="3.81" shape="701.44,1801.55 699.64,1804.09"/>
        <lane id=":22.17_0_5" index="5" disallow="all" speed="27.78" length="2.71" width="0.95" shape="699.50,1800.13 697.64,1802.81"/>
    </edge>
    <edge id=":23.10_0" function="internal">
        <lane id=":23.10_0_0" index="0" disallow="all" speed="27.78" length="3.00" width="3.79" shape="342.83,2339.01 342.27,2339.72 341.83,2340.16 341.37,2340.59 340.80,2341.30"/>
        <lane id=":23.10_0_1" index="1" disallow="pedestrian tram rail_urban rail rail_electric rail_fast ship" speed="27.78" length="3.00" width="3.77" shape="339.77,2336.89 339.21,2337.59 338.75,2338.00 338.29,2338.41 337.72,2339.11"/>
        <lane id=":23.10_0_2" index="2" disallow="pedestrian tram rail_urban rail rail_electric rail_fast ship" speed="27.78" length="3.00" width="3.83" shape="336.69,2334.75 336.13,2335.44 335.66,2335.83 335.19,2336.23 334.63,2336.90"/>
        <lane id=":23.10_0_3" index="3" disallow="all" speed="27.78" length="3.00" width="0.72" shape="334.65,2333.35 334.13,2334.04 333.72,2334.47 333.31,2334.90 332.77,2335.59"/>
    </edge>
    <edge id=":24.12_0" function="internal">
        <lane id=":24.12_0_0" index="0" disallow="all" speed="27.78" length="2.89" width="3.22" shape="2498.04,396.36 2495.47,397.66"/>
        <lane id=":24.12_0_1" index="1" disallow="pedestrian tram rail_urban rail rail_electric rail_fast ship" speed="27.78" length="2.89" width="3.75" shape="2496.74,393.16 2494.15,394.43"/>
        <lane id=":24.12_0_2" index="2" disallow="pedestrian tram rail_urban rail rail_electric rail_fast ship" speed="27.78" length="2.89" width="3.77" shape="2495.33,389.69 2492.73,390.95"/>
        <lane id=":24.12_0_3" index="3" disallow="pedestrian tram rail_urban rail rail_electric rail_fast ship" speed="27.78" length="2.89" width="3.85" shape="2493.91,386.18 2491.30,387.42"/>
        <lane id=":24.12_0_4" index="4" disallow="pedestrian tram rail_urban rail rail_electric rail_fast ship" speed="27.78" length="2.89" width="3.95" shape="2492.47,382.62 2489.83,383.81"/>
        <lane id=":24.12_0_5" index="5" disallow="all" speed="27.78" length="2.89" width="0.67" shape="2491.63,380.56 2488.95,381.67"/>
    </edge>
    <edge id=":32.31_0" function="internal">
        <lane id=":32.31_0_0" index="0" disallow="all" speed="27.78" length="2.96" width="2.90" shape="1055.94,1395.69 1055.29,1396.33 1054.79,1396.70 1054.29,1397.08 1053.63,1397.71"/>
        <lane id=":32.31_0_1" index="1" disallow="pedestrian tram rail_urban rail rail_electric rail_fast ship" speed="27.78" length="2.96" width="3.99" shape="1053.36,1393.34 1052.72,1393.97 1052.24,1394.35 1051.75,1394.74 1051.11,1395.36"/>
        <lane id=":32.31_0_2" index="2" disallow="pedestrian tram rail_urban rail rail_electric rail_fast ship" speed="27.78" length="2.96" width="3.85" shape="1050.52,1390.76 1049.88,1391.37 1049.38,1391.73 1048.88,1392.08 1048.24,1392.69"/>
        <lane id=":32.31_0_3" index="3" disallow="pedestrian tram rail_urban rail rail_electric rail_fast ship" speed="27.78" length="2.96" width="3.78" shape="1047.66,1388.14 1047.03,1388.76 1046.55,1389.12 1046.07,1389.49 1045.44,1390.10"/>
        <lane id=":32.31_0_4" index="4" disallow="pedestrian tram rail_urban rail rail_electric rail_fast ship" speed="27.78" length="2.96" width="3.80" shape="1044.86,1385.59 1044.24,1386.20 1043.76,1386.56 1043.29,1386.92 1042.66,1387.52"/>
        <lane id=":32.31_0_5" index="5" disallow="pedestrian tram rail_urban rail rail_electric rail_fast ship" speed="27.78" length="2.96" width="3.82" shape="1042.05,1383.03 1041.44,1383.63 1040.96,1383.98 1040.49,1384.34 1039.87,1384.93"/>
        <lane id=":32.31_0_6" index="6" disallow="all" speed="27.78" length="2.96" width="0.60" shape="1040.30,1381.44 1038.25,1383.42"/>
    </edge>
    <edge id=":34.21_0" function="internal">
        <lane id=":34.21_0_0" index="0" disallow="pedestrian tram rail_urban rail rail_electric rail_fast ship" speed="27.78" length="3.16" width="3.71" shape="736.96,2231.70 736.83,2232.66 736.46,2233.28 736.08,2233.90 735.94,2234.86"/>
        <lane id=":34.21_0_1" index="1" disallow="pedestrian tram rail_urban rail rail_electric rail_fast ship" speed="27.78" length="3.16" width="3.20" shape="733.22,2231.92 733.13,2232.85 732.86,2233.48 732.58,2234.10 732.49,2235.04"/>
        <lane id=":34.21_0_2" index="2" disallow="pedestrian tram rail_urban rail rail_electric rail_fast ship" speed="27.78" length="3.16" width="3.71" shape="729.48,2232.13 729.43,2233.05 729.26,2233.67 729.09,2234.29 729.04,2235.21"/>
        <lane id=":34.21_0_3" index="3" disallow="pedestrian tram rail_urban rail rail_electric rail_fast ship" speed="27.78" length="3.16" width="3.22" shape="725.73,2232.34 725.73,2233.25 725.66,2233.87 725.58,2234.48 725.58,2235.39"/>
        <lane id=":34.21_0_4" index="4" disallow="pedestrian tram rail_urban rail rail_electric rail_fast ship" speed="27.78" length="3.16" width="3.70" shape="721.99,2232.56 722.12,2235.56"/>
    </edge>
    <edge id=":35#1_0" function="internal">
        <lane id=":35#1_0_0" index="0" disallow="all" speed="27.78" length="3.13" width="1.81" shape="4816.02,-18.36 4818.89,-20.43"/>
        <lane id=":35#1_0_1" index="1" disallow="pedestrian tram rail_urban rail rail_electric rail_fast ship" speed="27.78" length="3.13" width="3.92" shape="4816.23,-15.92 4817.15,-16.22 4817.67,-16.75 4818.20,-17.28 4819.12,-17.57"/>
        <lane id=":35#1_0_2" index="2" disallow="pedestrian tram rail_urban rail rail_electric rail_fast ship" speed="27.78" length="3.13" width="4.35" shape="4816.47,-13.02 4819.46,-13.45"/>
        <lane id=":35#1_0_3" index="3" disallow="pedestrian tram rail_urban rail rail_electric rail_fast ship" speed="27.78" length="3.13" width="3.87" shape="4816.79,-9.09 4819.80,-9.36"/>
        <lane id=":35#1_0_4" index="4" disallow="pedestrian tram rail_urban rail rail_electric rail_fast ship" speed="27.78" length="3.13" width="3.74" shape="4817.11,-5.31 4820.11,-5.57"/>
        <lane id=":35#1_0_5" index="5" disallow="pedestrian tram rail_urban rail rail_electric rail_fast ship" speed="27.78" length="3.13" width="3.79" shape="4817.42,-1.56 4820.42,-1.81"/>
        <lane id=":35#1_0_6" index="6" disallow="pedestrian tram rail_urban rail rail_electric rail_fast ship" speed="27.78" length="3.13" width="3.81" shape="4817.74,2.22 4820.73,1.97"/>
        <lane id=":35#1_0_7" index="7" disallow="all" speed="27.78" length="3.13" width="0.61" shape="4817.92,4.43 4820.92,4.18"/>
    </edge>
    <edge id=":36.15_0" function="internal">
        <lane id=":36.15_0_0" index="0" disallow="all" speed="27.78" length="2.85" width="3.32" shape="1645.52,866.59 1643.18,868.33"/>
        <lane id=":36.15_0_1" index="1" disallow="pedestrian tram rail_urban rail rail_electric rail_fast ship" speed="27.78" length="2.85" width="3.79" shape="1643.47,863.77 1641.12,865.43"/>
        <lane id=":36.15_0_2" index="2" disallow="pedestrian tram rail_urban rail rail_electric rail_fast ship" speed="27.78" length="2.85" width="3.77" shape="1641.25,860.71 1638.92,862.36"/>
        <lane id=":36.15_0_3" index="3" disallow="pedestrian tram rail_urban rail rail_electric rail_fast ship" speed="27.78" length="2.85" width="3.75" shape="1639.07,857.69 1636.73,859.30"/>
        <lane id=":36.15_0_4" index="4" disallow="pedestrian tram rail_urban rail rail_electric rail_fast ship" speed="27.78" length="2.85" width="3.90" shape="1636.81,854.57 1634.51,856.19"/>
        <lane id=":36.15_0_5" index="5" disallow="all" speed="27.78" length="2.85" width="0.66" shape="1635.44,852.69 1633.19,854.33"/>
    </edge>
    <edge id=":37.28_0" function="internal">
        <lane id=":37.28_0_0" index="0" disallow="all" speed="27.78" length="3.04" width="2.83" shape="2085.76,546.67 2086.60,546.29 2087.20,546.10 2087.81,545.92 2088.65,545.54"/>
        <lane id=":37.28_0_1" index="1" disallow="pedestrian tram rail_urban rail rail_electric rail_fast ship" speed="27.78" length="3.04" width="3.73" shape="2087.36,549.62 2088.18,549.23 2088.77,549.02 2089.37,548.82 2090.19,548.43"/>
        <lane id=":37.28_0_2" index="2" disallow="pedestrian tram rail_urban rail rail_electric rail_fast ship" speed="27.78" length="3.04" width="3.78" shape="2089.17,552.97 2091.96,551.75"/>
        <lane id=":37.28_0_3" index="3" disallow="pedestrian tram rail_urban rail rail_electric rail_fast ship" speed="27.78" length="3.04" width="3.82" shape="2090.98,556.32 2093.75,555.10"/>
        <lane id=":37.28_0_4" index="4" disallow="pedestrian tram rail_urban rail rail_electric rail_fast ship" speed="27.78" length="3.04" width="3.79" shape="2092.77,559.64 2093.58,559.25 2094.16,559.05 2094.73,558.84 2095.54,558.46"/>
        <lane id=":37.28_0_5" index="5" disallow="all" speed="27.78" length="3.04" width="0.53" shape="2093.86,561.65 2096.55,560.36"/>
    </edge>
    <edge id=":38.11_0" function="internal">
        <lane id=":38.11_0_0" index="0" disallow="pedestrian tram rail_urban rail rail_electric rail_fast ship" speed="27.78" length="3.07" width="3.73" shape="592.88,1916.80 594.73,1914.39"/>
        <lane id=":38.11_0_1" index="1" disallow="pedestrian tram rail_urban rail rail_electric rail_fast ship" speed="27.78" length="3.07" width="3.74" shape="595.91,1919.03 597.75,1916.59"/>
        <lane id=":38.11_0_2" index="2" disallow="pedestrian tram rail_urban rail rail_electric rail_fast ship" speed="27.78" length="3.07" width="3.79" shape="598.95,1921.27 600.79,1918.81"/>
        <lane id=":38.11_0_3" index="3" disallow="pedestrian tram rail_urban rail rail_electric rail_fast ship" speed="27.78" length="3.07" width="3.79" shape="602.02,1923.52 603.86,1921.04"/>
        <lane id=":38.11_0_4" index="4" disallow="all" speed="27.78" length="3.07" width="0.57" shape="603.79,1924.82 605.62,1922.32"/>
    </edge>
    <edge id=":39#1_0" function="internal">
        <lane id=":39#1_0_0" index="0" disallow="pedestrian tram rail_urban rail rail_electric rail_fast ship" speed="27.78" length="2.85" width="3.86" shape="708.20,2109.37 708.93,2112.11"/>
        <lane id=":39#1_0_1" index="1" allow="emergency authority" speed="27.78" length="2.85" width="1.76" shape="705.52,2110.04 706.20,2112.80"/>
        <lane id=":39#1_0_2" index="2" allow="emergency authority" speed="27.78" length="2.85" width="1.80" shape="703.88,2110.45 704.48,2113.23"/>
        <lane id=":39#1_0_3" index="3" disallow="pedestrian tram rail_urban rail rail_electric rail_fast ship" speed="27.78" length="2.85" width="1.90" shape="702.18,2110.88 702.68,2113.68"/>
        <lane id=":39#1_0_4" index="4" disallow="pedestrian tram rail_urban rail rail_electric rail_fast ship" speed="27.78" length="2.85" width="2.80" shape="699.82,2111.46 700.40,2114.26"/>
    </edge>
    <edge id=":39#2_0" function="internal">
        <lane id=":39#2_0_0" index="0" disallow="pedestrian tram rail_urban rail rail_electric rail_fast ship" speed="27.78" length="2.78" width="3.86" shape="708.98,2112.30 709.76,2114.98"/>
        <lane id=":39#2_0_1" index="1" allow="emergency authority" speed="27.78" length="2.78" width="1.80" shape="706.25,2112.99 707.02,2115.67"/>
        <lane id=":39#2_0_2" index="2" allow="emergency authority" speed="27.78" length="2.78" width="1.84" shape="704.53,2113.43 705.25,2116.11"/>
        <lane id=":39#2_0_3" index="3" disallow="pedestrian tram rail_urban rail rail_electric rail_fast ship" speed="27.78" length="2.78" width="1.95" shape="702.73,2113.88 703.41,2116.57"/>
        <lane id=":39#2_0_4" index="4" disallow="pedestrian tram rail_urban rail rail_electric rail_fast ship" speed="27.78" length="2.78" width="2.77" shape="700.45,2114.45 701.12,2117.14"/>
    </edge>
    <edge id=":39#3_0" function="internal">
        <lane id=":39#3_0_0" index="0" disallow="pedestrian tram rail_urban rail rail_electric rail_fast ship" speed="27.78" length="2.46" width="3.85" shape="709.80,2115.12 713.38,2115.63"/>
        <lane id=":39#3_0_1" index="1" disallow="pedestrian tram rail_urban rail rail_electric rail_fast ship" speed="27.78" length="2.46" width="2.75" shape="707.05,2115.81 710.18,2116.44"/>
        <lane id=":39#3_0_2" index="2" disallow="pedestrian tram rail_urban rail rail_electric rail_fast ship" speed="27.78" length="2.46" width="2.77" shape="705.29,2116.25 707.51,2117.12"/>
        <lane id=":39#3_0_3" index="3" disallow="pedestrian tram rail_urban rail rail_electric rail_fast ship" speed="27.78" length="2.46" width="3.03" shape="703.45,2116.71 704.69,2117.83"/>
        <lane id=":39#3_0_4" index="4" disallow="pedestrian tram rail_urban rail rail_electric rail_fast ship" speed="27.78" length="2.46" width="3.16" shape="701.16,2117.28 701.29,2117.68 701.42,2117.93 701.56,2118.19 701.69,2118.58"/>
    </edge>
    <edge id=":4.19_0" function="internal">
        <lane id=":4.19_0_0" index="0" disallow="pedestrian tram rail_urban rail rail_electric rail_fast ship" speed="27.78" length="2.98" width="3.80" shape="521.29,2001.86 521.75,2001.16 521.98,2000.62 522.19,2000.07 522.61,1999.33"/>
        <lane id=":4.19_0_1" index="1" disallow="all" speed="27.78" length="2.98" width="3.02" shape="523.83,2003.83 524.37,2003.08 524.68,2002.54 524.98,2001.98 525.46,2001.19"/>
    </edge>
    <edge id=":40.39_0" function="internal">
        <lane id=":40.39_0_0" index="0" disallow="pedestrian tram rail_urban rail rail_electric rail_fast ship" speed="27.78" length="3.25" width="3.87" shape="719.58,2142.84 722.16,2145.33"/>
        <lane id=":40.39_0_1" index="1" disallow="pedestrian tram rail_urban rail rail_electric rail_fast ship" speed="27.78" length="3.25" width="3.35" shape="716.36,2143.56 716.82,2144.43 717.50,2144.83 718.18,2145.23 718.64,2146.10"/>
        <lane id=":40.39_0_2" index="2" disallow="pedestrian tram rail_urban rail rail_electric rail_fast ship" speed="27.78" length="3.25" width="3.36" shape="713.67,2144.16 714.03,2145.01 714.52,2145.49 715.00,2145.97 715.36,2146.81"/>
        <lane id=":40.39_0_3" index="3" disallow="pedestrian tram rail_urban rail rail_electric rail_fast ship" speed="27.78" length="3.25" width="3.46" shape="710.84,2144.80 711.12,2145.63 711.44,2146.17 711.75,2146.70 712.03,2147.54"/>
        <lane id=":40.39_0_4" index="4" disallow="pedestrian tram rail_urban rail rail_electric rail_fast ship" speed="27.78" length="3.25" width="3.51" shape="707.82,2145.47 708.62,2148.28"/>
    </edge>
    <edge id=":41.20_0" function="internal">
        <lane id=":41.20_0_0" index="0" disallow="all" speed="27.78" length="3.02" width="1.67" shape="318.14,2260.33 318.51,2259.45 318.45,2258.70 318.38,2257.96 318.75,2257.08"/>
        <lane id=":41.20_0_1" index="1" disallow="pedestrian tram rail_urban rail rail_electric rail_fast ship" speed="27.78" length="3.02" width="4.24" shape="319.71,2261.45 320.18,2260.71 320.42,2260.14 320.66,2259.58 321.14,2258.83"/>
        <lane id=":41.20_0_2" index="2" disallow="pedestrian tram rail_urban rail rail_electric rail_fast ship" speed="27.78" length="3.02" width="3.89" shape="322.56,2263.51 324.41,2261.23"/>
        <lane id=":41.20_0_3" index="3" disallow="pedestrian tram rail_urban rail rail_electric rail_fast ship" speed="27.78" length="3.02" width="3.78" shape="325.64,2265.72 327.50,2263.50"/>
        <lane id=":41.20_0_4" index="4" disallow="all" speed="27.78" length="3.02" width="1.67" shape="327.93,2267.37 329.70,2265.11"/>
    </edge>
    <edge id=":42#1_0" function="internal">
        <lane id=":42#1_0_0" index="0" disallow="all" speed="27.78" length="3.20" width="3.44" shape="4682.42,40.46 4681.40,40.26 4680.78,39.70 4680.16,39.13 4679.14,38.93"/>
        <lane id=":42#1_0_1" index="1" allow="emergency authority" speed="27.78" length="3.20" width="1.80" shape="4682.13,37.00 4681.18,36.93 4680.54,36.66 4679.90,36.39 4678.94,36.32"/>
        <lane id=":42#1_0_2" index="2" disallow="pedestrian tram rail_urban rail rail_electric rail_fast ship" speed="27.78" length="3.20" width="3.94" shape="4681.81,33.17 4678.72,33.46"/>
        <lane id=":42#1_0_3" index="3" disallow="pedestrian tram rail_urban rail rail_electric rail_fast ship" speed="27.78" length="3.20" width="3.72" shape="4681.50,29.36 4678.43,29.64"/>
        <lane id=":42#1_0_4" index="4" disallow="pedestrian tram rail_urban rail rail_electric rail_fast ship" speed="27.78" length="3.20" width="3.80" shape="4681.18,25.61 4678.14,25.89"/>
        <lane id=":42#1_0_5" index="5" disallow="pedestrian tram rail_urban rail rail_electric rail_fast ship" speed="27.78" length="3.20" width="3.81" shape="4680.87,21.82 4677.84,22.10"/>